LTspice 24.0.12 for Windows
Circuit: * C:\Users\joaop\Documents\Poli\Ondas e Linhas\Ep2\Q2.asc
Start Time: Fri Jul 26 17:28:30 2024
solver = Normal
Maximum thread count: 8
tnom = 27
temp = 27
method = modified trap
.OP point found by inspection.
Total elapsed time: 0.663 seconds.

