LTspice 24.0.12 for Windows
Circuit: * C:\Users\joaop\Documents\Poli\Ondas e Linhas\Ep2\Q2a.asc
Start Time: Sat Sep 14 10:31:51 2024
solver = Normal
Maximum thread count: 8
tnom = 27
temp = 27
method = modified trap
Per .tran options, skipping operating point for transient analysis.
Total elapsed time: 6.114 seconds.

