LTspice 24.0.12 for Windows
Circuit: * C:\Users\joaop\Documents\Poli\Ondas e Linhas\Ep1\EC1_e.asc
Start Time: Fri Aug 23 13:31:09 2024
solver = Normal
Maximum thread count: 8
tnom = 27
temp = 27
method = modified trap
lte: using linear interpolation because trytocompact option specified
Fatal Error: lte: Nonzero G (except RG) line not supported yet
