LTspice 24.0.12 for Windows
Circuit: * C:\Users\joaop\Documents\Poli\Ondas e Linhas\EC1_a.asc
Start Time: Mon Jul 15 23:42:30 2024
solver = Normal
Maximum thread count: 8
tnom = 27
temp = 27
method = modified trap
lte: using linear interpolation because trytocompact option specified
.OP point found by inspection.
Total elapsed time: 0.083 seconds.

